REMARK  2 active torsions:
REMARK  status: ('A' for Active; 'I' for Inactive)
REMARK    1  A    between atoms: C4_1950  and  C7_1953 
REMARK    2  A    between atoms: C15_1961  and  C5_1951 
ROOT
HETATM    1  N1  CP6 A 239      24.710 -21.585 139.019  0.00  0.00    -0.194 NA
HETATM    2  C2  CP6 A 239      25.664 -20.883 138.307  0.00  0.00    +0.239 A 
HETATM    3  C3  CP6 A 239      24.275 -21.079 140.274  0.00  0.00    +0.187 A 
HETATM    4  C4  CP6 A 239      24.825 -19.825 140.860  0.00  0.00    +0.051 A 
HETATM    5  C5  CP6 A 239      25.840 -19.166 139.961  0.00  0.00    +0.065 A 
HETATM    6  N6  CP6 A 239      26.219 -19.688 138.752  0.00  0.00    -0.219 NA
HETATM    7  N13 CP6 A 239      23.349 -21.738 140.970  0.00  0.00    -0.127 N 
HETATM    8  N14 CP6 A 239      26.110 -21.393 137.081  0.00  0.00    -0.060 NA
ENDROOT
BRANCH   4   9
HETATM    9  C7  CP6 A 239      24.418 -19.299 142.171  0.00  0.00    +0.000 A 
HETATM   10  C12 CP6 A 239      23.104 -18.794 142.422  0.00  0.00    -0.020 A 
HETATM   11  C11 CP6 A 239      22.717 -18.266 143.707  0.00  0.00    +0.064 A 
HETATM   12  C10 CP6 A 239      23.702 -18.236 144.807  0.00  0.00    +0.040 A 
HETATM   13  C9  CP6 A 239      24.988 -18.708 144.597  0.00  0.00    +0.007 A 
HETATM   14 CL1  CP6 A 239      23.196 -17.640 146.259  0.00  0.00    -0.087 Cl
HETATM   15  C8  CP6 A 239      25.352 -19.234 143.304  0.00  0.00    +0.000 A 
ENDBRANCH   4   9
BRANCH   5  16
HETATM   16  C15 CP6 A 239      26.485 -17.868 140.386  0.00  0.00    +0.046 C 
HETATM   17  C16 CP6 A 239      25.534 -16.689 140.540  0.00  0.00    +0.007 C 
ENDBRANCH   5  16
TORSDOF 2
