REMARK  2 active torsions:
REMARK  status: ('A' for Active; 'I' for Inactive)
REMARK    1  A    between atoms: C4_1950  and  C7_1953 
REMARK    2  A    between atoms: C15_1961  and  C5_1951 
ROOT
HETATM    1  N1  CP6 A 239      24.716 -21.566 139.022  0.00  0.00    -0.194 NA
HETATM    2  C2  CP6 A 239      25.667 -20.857 138.312  0.00  0.00    +0.239 A 
HETATM    3  C3  CP6 A 239      24.279 -21.066 140.278  0.00  0.00    +0.187 A 
HETATM    4  C4  CP6 A 239      24.824 -19.811 140.868  0.00  0.00    +0.051 A 
HETATM    5  C5  CP6 A 239      25.835 -19.144 139.971  0.00  0.00    +0.065 A 
HETATM    6  N6  CP6 A 239      26.216 -19.661 138.760  0.00  0.00    -0.219 NA
HETATM    7  N13 CP6 A 239      23.356 -21.731 140.973  0.00  0.00    -0.127 N 
HETATM    8  N14 CP6 A 239      26.114 -21.361 137.083  0.00  0.00    -0.060 NA
ENDROOT
BRANCH   4   9
HETATM    9  C7  CP6 A 239      24.415 -19.292 142.181  0.00  0.00    +0.000 A 
HETATM   10  C12 CP6 A 239      23.102 -18.784 142.432  0.00  0.00    -0.020 A 
HETATM   11  C11 CP6 A 239      22.714 -18.262 143.719  0.00  0.00    +0.064 A 
HETATM   12  C10 CP6 A 239      23.696 -18.242 144.822  0.00  0.00    +0.040 A 
HETATM   13  C9  CP6 A 239      24.981 -18.717 144.612  0.00  0.00    +0.007 A 
HETATM   14 CL1  CP6 A 239      23.188 -17.653 146.276  0.00  0.00    -0.087 Cl
HETATM   15  C8  CP6 A 239      25.347 -19.237 143.317  0.00  0.00    +0.000 A 
ENDBRANCH   4   9
BRANCH   5  16
HETATM   16  C15 CP6 A 239      26.475 -17.845 140.400  0.00  0.00    +0.046 C 
HETATM   17  C16 CP6 A 239      25.521 -16.668 140.542  0.00  0.00    +0.007 C 
ENDBRANCH   5  16
TORSDOF 2
