REMARK  2 active torsions:
REMARK  status: ('A' for Active; 'I' for Inactive)
REMARK    1  A    between atoms: C4_1950  and  C7_1953 
REMARK    2  A    between atoms: C15_1961  and  C5_1951 
ROOT
HETATM    1  N1  CP6 A 239      24.716 -21.549 139.032  0.00  0.00    -0.194 NA
HETATM    2  C2  CP6 A 239      25.671 -20.845 138.324  0.00  0.00    +0.239 A 
HETATM    3  C3  CP6 A 239      24.276 -21.046 140.286  0.00  0.00    +0.187 A 
HETATM    4  C4  CP6 A 239      24.824 -19.793 140.876  0.00  0.00    +0.051 A 
HETATM    5  C5  CP6 A 239      25.840 -19.131 139.982  0.00  0.00    +0.065 A 
HETATM    6  N6  CP6 A 239      26.223 -19.650 138.773  0.00  0.00    -0.219 NA
HETATM    7  N13 CP6 A 239      23.349 -21.708 140.978  0.00  0.00    -0.127 N 
HETATM    8  N14 CP6 A 239      26.121 -21.351 137.097  0.00  0.00    -0.060 NA
ENDROOT
BRANCH   4   9
HETATM    9  C7  CP6 A 239      24.412 -19.270 142.187  0.00  0.00    +0.000 A 
HETATM   10  C12 CP6 A 239      23.092 -18.783 142.440  0.00  0.00    -0.020 A 
HETATM   11  C11 CP6 A 239      22.701 -18.258 143.725  0.00  0.00    +0.064 A 
HETATM   12  C10 CP6 A 239      23.687 -18.213 144.824  0.00  0.00    +0.040 A 
HETATM   13  C9  CP6 A 239      24.979 -18.669 144.611  0.00  0.00    +0.007 A 
HETATM   14 CL1  CP6 A 239      23.176 -17.621 146.275  0.00  0.00    -0.087 Cl
HETATM   15  C8  CP6 A 239      25.348 -19.192 143.318  0.00  0.00    +0.000 A 
ENDBRANCH   4   9
BRANCH   5  16
HETATM   16  C15 CP6 A 239      26.483 -17.833 140.411  0.00  0.00    +0.046 C 
HETATM   17  C16 CP6 A 239      25.532 -16.652 140.549  0.00  0.00    +0.007 C 
ENDBRANCH   5  16
TORSDOF 2
