REMARK  2 active torsions:
REMARK  status: ('A' for Active; 'I' for Inactive)
REMARK    1  A    between atoms: C4_1950  and  C7_1953 
REMARK    2  A    between atoms: C15_1961  and  C5_1951 
ROOT
HETATM    1  N1  CP6 A 239      88.759  12.707  31.072  1.00  0.00    -0.194 NA
HETATM    2  C2  CP6 A 239      89.754  13.569  30.651  1.00  0.00     0.239 A 
HETATM    3  C3  CP6 A 239      88.687  12.355  32.447  1.00  0.00     0.187 A 
HETATM    4  C4  CP6 A 239      89.660  12.869  33.451  1.00  0.00     0.051 A 
HETATM    5  C5  CP6 A 239      90.671  13.809  32.846  1.00  0.00     0.065 A 
HETATM    6  N6  CP6 A 239      90.692  14.127  31.513  1.00  0.00    -0.219 NA
HETATM    7  N13 CP6 A 239      87.729  11.532  32.872  1.00  0.00    -0.127 N 
HETATM    8  N14 CP6 A 239      89.839  13.899  29.292  1.00  0.00    -0.060 NA
ENDROOT
BRANCH   4   9
HETATM    9  C7  CP6 A 239      89.629  12.493  34.872  1.00  0.00     0.000 A 
HETATM   10  C12 CP6 A 239      90.659  11.712  35.483  1.00  0.00    -0.020 A 
HETATM   11  C11 CP6 A 239      90.613  11.335  36.874  1.00  0.00     0.064 A 
HETATM   12  C10 CP6 A 239      89.469  11.760  37.706  1.00  0.00     0.040 A 
HETATM   13  C9  CP6 A 239      88.447  12.510  37.144  1.00  0.00     0.007 A 
HETATM   14 CL1  CP6 A 239      89.482  11.316  39.294  1.00  0.00    -0.087 Cl
HETATM   15  C8  CP6 A 239      88.515  12.878  35.751  1.00  0.00     0.000 A 
ENDBRANCH   4   9
BRANCH   5  16
HETATM   16  C15 CP6 A 239      91.721  14.446  33.725  1.00  0.00     0.046 C 
HETATM   17  C16 CP6 A 239      91.537  15.935  33.982  1.00  0.00     0.007 C 
ENDBRANCH   5  16
TORSDOF 2
